// Generated for: spectre
// Generated on: Apr 27 23:42:15 2022
// Design library name: Design
// Design cell name: 4BitAdder_transistor
// Design view name: schematic
simulator lang=spectre
global 0
