// Generated for: spectre
// Generated on: Apr 21 01:00:40 2022
// Design library name: Design
// Design cell name: 1BitAdder_Simulate
// Design view name: schematic
simulator lang=spectre
global 0 vdd!
