// Generated for: spectre
// Generated on: Apr 19 16:54:45 2022
// Design library name: Design
// Design cell name: inverter_simulate
// Design view name: schematic
simulator lang=spectre
global 0 vdd!
