// Generated for: spectre
// Generated on: Apr 19 20:00:25 2022
// Design library name: Design
// Design cell name: nand2_simulate
// Design view name: schematic
simulator lang=spectre
global 0 vdd!
