// Generated for: spectre
// Generated on: Apr 28 00:21:01 2022
// Design library name: Design
// Design cell name: 4BitAdder_unit
// Design view name: schematic
simulator lang=spectre
global 0 vdd!
