;Spice netlist for an nand2 and a capacitor
simulator lang=spectre

include "~/cadence/cellcharacs/model18.spi"
include "~/cadence/cellcharacs/cell18.spi"

vgnd (gnd 0) vsource dc=0
vvdd (vdd 0) vsource dc=1.8

vpwl (IV_in 0) vsource type=pwl wave=[0n 0 1n 0 1.2n 1.8 4n 1.8 4.2n 0]

X1 (IV_in vdd IV_out vdd gnd) NAND2 wp=700n lp=200n wn=300n ln=200n 

R1 (IV_out 1) resistor r=1
C1 (1 0) capacitor c=100f

TransientAnalysis tran start=0 stop=10ns step=1ps
save IV_in IV_out
